/*--------------------------------*- C++ -*----------------------------------*\
| =========                 |                                                 |
| \\      /  F ield         | OpenFOAM: The Open Source CFD Toolbox           |
|  \\    /   O peration     | Version:  v2112                                 |
|   \\  /    A nd           | Website:  www.openfoam.com                      |
|    \\/     M anipulation  |                                                 |
\*---------------------------------------------------------------------------*/
FoamFile
{
    version     2.0;
    format      ascii;
    class       dictionary;
    object      controlDict;
}
// * * * * * * * * * * * * * * * * * * * * * * * * * * * * * * * * * * * * * //

application       pimpleFoam;

startFrom         latestTime;

startTime         0;

stopAt            endTime;

endTime           10.0;

deltaT            1e-3;

writeControl      adjustableRunTime;

writeInterval     1e-3;

purgeWrite        0;

writeFormat       binary;

writePrecision    7;

writeCompression  no;

timeFormat        general;

timePrecision     6;

runTimeModifiable yes;

adjustTimeStep    yes;

maxCo             100;


#include "$FOAM_CASE/system/initialConditions"
functions
{
    #includeFunc Q
    #include "sampling/yPlus"
    #include "sampling/forces"
    #include "sampling/AMIWeights"
    #include "sampling/propellerInfo"
}

// ************************************************************************* //
