/*--------------------------------*- C++ -*----------------------------------*\
| =========                 |                                                 |
| \\      /  F ield         | OpenFOAM: The Open Source CFD Toolbox           |
|  \\    /   O peration     | Version:  v2112                                 |
|   \\  /    A nd           | Website:  www.openfoam.com                      |
|    \\/     M anipulation  |                                                 |
\*---------------------------------------------------------------------------*/
FoamFile
{
    version     2.0;
    format      ascii;
    class       dictionary;
    object      surfaceFeatureExtractDict;
}
// * * * * * * * * * * * * * * * * * * * * * * * * * * * * * * * * * * * * * //

#include "$FOAM_CASE/system/initialConditions" 

        AMI_7000mm.stl
        {
            extractionMethod    extractFromSurface;
            includedAngle       170;
        }
            

        turbine_comp_FURNAS2024_tower.stl
        {
            extractionMethod    extractFromSurface;
            includedAngle       170;
        }
            

        turbine_rotor_FURNAS2024.stl
        {
            extractionMethod    extractFromSurface;
            includedAngle       170;
        }
            
