/*--------------------------------*- C++ -*----------------------------------*\
| =========                 |                                                 |
| \\      /  F ield         | OpenFOAM: The Open Source CFD Toolbox           |
|  \\    /   O peration     | Version:  plus                                  |
|   \\  /    A nd           | Web:      www.OpenFOAM.com                      |
|    \\/     M anipulation  |                                                 |
\*---------------------------------------------------------------------------*/
FoamFile
{
    version     2.0;
    format      ascii;
    class       dictionary;
    object      fvSchemes;
}
// * * * * * * * * * * * * * * * * * * * * * * * * * * * * * * * * * * * * * //

ddtSchemes
{
    default         steadyState;
}

gradSchemes
{
    default         Gauss linear;
    limited         cellLimited leastSquares 1;
    grad(p)         cellLimited leastSquares 1;
    grad(U)         cellMDLimited leastSquares 1;
}

divSchemes
{
    default                       none;
    div(phi,U)                    bounded Gauss upwind; // linearUpwind unlimited;
    div(phi,k)                    bounded Gauss upwind;
    div(phi,omega)                bounded Gauss upwind;
    div((nuEff*dev(T(grad(U)))))  Gauss upwind;
    div((nuEff*dev2(T(grad(U))))) Gauss linear;
}

laplacianSchemes
{
    default                    Gauss linear limited 0.5;
    laplacian((1|A(U)),p)      Gauss linear limited 0.5;
    laplacian(nuEff,U)         Gauss linear limited 0.5;
    laplacian(DkEff,k)         Gauss linear limited 0.333;
    laplacian(DomegaEff,omega) Gauss linear limited 0.333;
}

interpolationSchemes
{
    default         linear;
}

snGradSchemes
{
    default         limited corrected 0.333;
}

wallDist
{
    method meshWave;
}

fluxRequired
{
    default	no;
    p		;
}
// ************************************************************************* //
