/*--------------------------------*- C++ -*----------------------------------*\
| =========                 |                                                 |
| \\      /  F ield         | OpenFOAM: The Open Source CFD Toolbox           |
|  \\    /   O peration     | Version:  plus                                  |
|   \\  /    A nd           | Web:      www.OpenFOAM.com                      |
|    \\/     M anipulation  |                                                 |
\*---------------------------------------------------------------------------*/
FoamFile
{
    version     2.0;
    format      ascii;
    class       dictionary;
    object      fvSolution;
}
// * * * * * * * * * * * * * * * * * * * * * * * * * * * * * * * * * * * * * //

solvers
{
    p
    {
        solver          PCG; //GAMG;
        preconditioner
        {
            preconditioner	GAMG;
            smoother        	DICGaussSeidel;
            nPreSweeps		0;
            nPostSweeps		2;
            nBottomSweeps	2;
            cacheAgglomeration	true;
            agglomerator	faceAreaPair;
            nCellsCoarsestLevel	50;
            mergeLevels		1;
        }
        tolerance       1e-6;
        relTol          0.0;
	    maxIter		1000;
    }

    "(U|k|omega)"
    {
        solver          PBiCG; // smoothSolver;
        preconditioner  DILU; // symGaussSeidel;
	    smoother        symGaussSeidel;
        tolerance       1e-5;
        relTol          0.0;
	    maxIter		100;
    }
}

SIMPLE
{
    nNonOrthogonalCorrectors 2;
    pRefCell	0;
    pRefValue	0;

    // consistent      yes;
    // residualControl
    // {
    //     U                   1e-4;
    //     p                   1e-3;
    //     "(k|epsilon|omega)" 1e-3;
    // }

}


relaxationFactors
{
    fields
    {
	    p	0.3;
    }
    equations
    {
        U       0.5;
        k	    0.5;
    	omega	0.5;
    }
}

// ************************************************************************* //
